<?xml version="1.0" encoding="utf-8"?>
<!DOCTYPE population SYSTEM "http://www.matsim.org/files/dtd/population_v6.dtd">

<population>

	<attributes>
		<attribute name="coordinateReferenceSystem" class="java.lang.String">Atlantis</attribute>
	</attributes>


	<!-- ====================================================================== -->

	<person id="0">
		<attributes>
			<attribute name="subpopulation" class="java.lang.String">person</attribute>
		</attributes>
		<plan score="-4.740430188804243" selected="yes">
			<activity type="home_600.0" link="35" end_time="08:44:46" >
			</activity>
			<leg mode="walk" dep_time="08:44:46" trav_time="00:00:00">
				<attributes>
					<attribute name="routingMode" class="java.lang.String">drt</attribute>
				</attributes>
				<route type="generic" start_link="35" end_link="35" trav_time="00:00:00" distance="0.0"></route>
			</leg>
			<activity type="drt interaction" link="35" x="0.0" y="150.0" max_dur="00:00:00" >
			</activity>
			<leg mode="drt" dep_time="08:44:47" trav_time="02:23:44">
				<attributes>
					<attribute name="routingMode" class="java.lang.String">drt</attribute>
				</attributes>
				<route type="drt" start_link="35" end_link="78" trav_time="02:23:42" distance="5000.0">300.0 5001.30149483095</route>
			</leg>
			<activity type="drt interaction" link="78" x="100.0" y="350.0" max_dur="00:00:00" >
			</activity>
			<leg mode="walk" dep_time="11:08:32" trav_time="00:00:00">
				<attributes>
					<attribute name="routingMode" class="java.lang.String">drt</attribute>
				</attributes>
				<route type="generic" start_link="78" end_link="78" trav_time="00:00:00" distance="0.0"></route>
			</leg>
			<activity type="work_600.0" link="78" end_time="12:56:57" >
			</activity>
			<leg mode="walk" dep_time="12:56:57" trav_time="00:00:00">
				<attributes>
					<attribute name="routingMode" class="java.lang.String">drt</attribute>
				</attributes>
				<route type="generic" start_link="78" end_link="78" trav_time="00:00:00" distance="0.0"></route>
			</leg>
			<activity type="drt interaction" link="78" x="100.0" y="350.0" max_dur="00:00:00" >
			</activity>
			<leg mode="drt" dep_time="12:56:58" trav_time="01:27:03">
				<attributes>
					<attribute name="routingMode" class="java.lang.String">drt</attribute>
				</attributes>
				<route type="drt" start_link="78" end_link="35" trav_time="01:27:01" distance="3000.0">300.0 3001.1393012806802</route>
			</leg>
			<activity type="drt interaction" link="35" x="0.0" y="150.0" max_dur="00:00:00" >
			</activity>
			<leg mode="walk" dep_time="14:24:02" trav_time="00:00:00">
				<attributes>
					<attribute name="routingMode" class="java.lang.String">drt</attribute>
				</attributes>
				<route type="generic" start_link="35" end_link="35" trav_time="00:00:00" distance="0.0"></route>
			</leg>
			<activity type="home_600.0" link="35" >
			</activity>
		</plan>

		<plan score="-4.821460176654673" selected="no">
			<activity type="home_600.0" link="35" end_time="08:44:46" >
			</activity>
			<leg mode="walk" dep_time="08:44:46" trav_time="00:00:00">
				<attributes>
					<attribute name="routingMode" class="java.lang.String">drt</attribute>
				</attributes>
				<route type="generic" start_link="35" end_link="35" trav_time="00:00:00" distance="0.0"></route>
			</leg>
			<activity type="drt interaction" link="35" x="0.0" y="150.0" max_dur="00:00:00" >
			</activity>
			<leg mode="drt" dep_time="08:44:47" trav_time="02:23:44">
				<attributes>
					<attribute name="routingMode" class="java.lang.String">drt</attribute>
				</attributes>
				<route type="drt" start_link="35" end_link="78" trav_time="02:23:42" distance="5000.0">300.0 5001.376330729501</route>
			</leg>
			<activity type="drt interaction" link="78" x="100.0" y="350.0" max_dur="00:00:00" >
			</activity>
			<leg mode="walk" dep_time="11:08:32" trav_time="00:00:00">
				<attributes>
					<attribute name="routingMode" class="java.lang.String">drt</attribute>
				</attributes>
				<route type="generic" start_link="78" end_link="78" trav_time="00:00:00" distance="0.0"></route>
			</leg>
			<activity type="work_600.0" link="78" end_time="12:56:57" >
			</activity>
			<leg mode="walk" dep_time="12:56:57" trav_time="00:00:00">
				<attributes>
					<attribute name="routingMode" class="java.lang.String">drt</attribute>
				</attributes>
				<route type="generic" start_link="78" end_link="78" trav_time="00:00:00" distance="0.0"></route>
			</leg>
			<activity type="drt interaction" link="78" x="100.0" y="350.0" max_dur="00:00:00" >
			</activity>
			<leg mode="drt" dep_time="12:56:58" trav_time="01:27:02">
				<attributes>
					<attribute name="routingMode" class="java.lang.String">drt</attribute>
				</attributes>
				<route type="drt" start_link="78" end_link="35" trav_time="01:27:02" distance="3000.0">300.0 3001.199475642301</route>
			</leg>
			<activity type="drt interaction" link="35" x="0.0" y="150.0" max_dur="00:00:00" >
			</activity>
			<leg mode="walk" dep_time="14:24:01" trav_time="00:00:00">
				<attributes>
					<attribute name="routingMode" class="java.lang.String">drt</attribute>
				</attributes>
				<route type="generic" start_link="35" end_link="35" trav_time="00:00:00" distance="0.0"></route>
			</leg>
			<activity type="home_600.0" link="35" >
			</activity>
		</plan>

		<plan score="-4.792252532919643" selected="no">
			<activity type="home_600.0" link="35" end_time="08:44:46" >
			</activity>
			<leg mode="walk" dep_time="08:44:46" trav_time="00:00:00">
				<attributes>
					<attribute name="routingMode" class="java.lang.String">drt</attribute>
				</attributes>
				<route type="generic" start_link="35" end_link="35" trav_time="00:00:00" distance="0.0"></route>
			</leg>
			<activity type="drt interaction" link="35" x="0.0" y="150.0" max_dur="00:00:00" >
			</activity>
			<leg mode="drt" dep_time="08:44:47" trav_time="02:23:43">
				<attributes>
					<attribute name="routingMode" class="java.lang.String">drt</attribute>
				</attributes>
				<route type="drt" start_link="35" end_link="78" trav_time="02:23:42" distance="5000.0">300.0 5001.538895361322</route>
			</leg>
			<activity type="drt interaction" link="78" x="100.0" y="350.0" max_dur="00:00:00" >
			</activity>
			<leg mode="walk" dep_time="11:08:31" trav_time="00:00:00">
				<attributes>
					<attribute name="routingMode" class="java.lang.String">drt</attribute>
				</attributes>
				<route type="generic" start_link="78" end_link="78" trav_time="00:00:00" distance="0.0"></route>
			</leg>
			<activity type="work_600.0" link="78" end_time="12:56:57" >
			</activity>
			<leg mode="walk" dep_time="12:56:57" trav_time="00:00:00">
				<attributes>
					<attribute name="routingMode" class="java.lang.String">drt</attribute>
				</attributes>
				<route type="generic" start_link="78" end_link="78" trav_time="00:00:00" distance="0.0"></route>
			</leg>
			<activity type="drt interaction" link="78" x="100.0" y="350.0" max_dur="00:00:00" >
			</activity>
			<leg mode="drt" dep_time="12:56:58" trav_time="01:27:02">
				<attributes>
					<attribute name="routingMode" class="java.lang.String">drt</attribute>
				</attributes>
				<route type="drt" start_link="78" end_link="35" trav_time="01:27:01" distance="3000.0">300.0 3001.1688551450425</route>
			</leg>
			<activity type="drt interaction" link="35" x="0.0" y="150.0" max_dur="00:00:00" >
			</activity>
			<leg mode="walk" dep_time="14:24:01" trav_time="00:00:00">
				<attributes>
					<attribute name="routingMode" class="java.lang.String">drt</attribute>
				</attributes>
				<route type="generic" start_link="35" end_link="35" trav_time="00:00:00" distance="0.0"></route>
			</leg>
			<activity type="home_600.0" link="35" >
			</activity>
		</plan>

		<plan score="-4.694151687787251" selected="no">
			<activity type="home_600.0" link="35" end_time="08:44:46" >
			</activity>
			<leg mode="walk" dep_time="08:44:46" trav_time="00:00:00">
				<attributes>
					<attribute name="routingMode" class="java.lang.String">drt</attribute>
				</attributes>
				<route type="generic" start_link="35" end_link="35" trav_time="00:00:00" distance="0.0"></route>
			</leg>
			<activity type="drt interaction" link="35" x="0.0" y="150.0" max_dur="00:00:00" >
			</activity>
			<leg mode="drt" dep_time="08:44:47" trav_time="02:23:43">
				<attributes>
					<attribute name="routingMode" class="java.lang.String">drt</attribute>
				</attributes>
				<route type="drt" start_link="35" end_link="78" trav_time="02:23:42" distance="5000.0">300.0 5001.389638483379</route>
			</leg>
			<activity type="drt interaction" link="78" x="100.0" y="350.0" max_dur="00:00:00" >
			</activity>
			<leg mode="walk" dep_time="11:08:31" trav_time="00:00:00">
				<attributes>
					<attribute name="routingMode" class="java.lang.String">drt</attribute>
				</attributes>
				<route type="generic" start_link="78" end_link="78" trav_time="00:00:00" distance="0.0"></route>
			</leg>
			<activity type="work_600.0" link="78" end_time="12:56:57" >
			</activity>
			<leg mode="walk" dep_time="12:56:57" trav_time="00:00:00">
				<attributes>
					<attribute name="routingMode" class="java.lang.String">drt</attribute>
				</attributes>
				<route type="generic" start_link="78" end_link="78" trav_time="00:00:00" distance="0.0"></route>
			</leg>
			<activity type="drt interaction" link="78" x="100.0" y="350.0" max_dur="00:00:00" >
			</activity>
			<leg mode="drt" dep_time="12:56:58" trav_time="01:27:02">
				<attributes>
					<attribute name="routingMode" class="java.lang.String">drt</attribute>
				</attributes>
				<route type="drt" start_link="78" end_link="35" trav_time="01:27:02" distance="3000.0">300.0 3001.1800267671715</route>
			</leg>
			<activity type="drt interaction" link="35" x="0.0" y="150.0" max_dur="00:00:00" >
			</activity>
			<leg mode="walk" dep_time="14:24:01" trav_time="00:00:00">
				<attributes>
					<attribute name="routingMode" class="java.lang.String">drt</attribute>
				</attributes>
				<route type="generic" start_link="35" end_link="35" trav_time="00:00:00" distance="0.0"></route>
			</leg>
			<activity type="home_600.0" link="35" >
			</activity>
		</plan>

		<plan score="-4.7474315341653295" selected="no">
			<activity type="home_600.0" link="35" end_time="08:44:46" >
			</activity>
			<leg mode="walk" dep_time="08:44:46" trav_time="00:00:00">
				<attributes>
					<attribute name="routingMode" class="java.lang.String">drt</attribute>
				</attributes>
				<route type="generic" start_link="35" end_link="35" trav_time="00:00:00" distance="0.0"></route>
			</leg>
			<activity type="drt interaction" link="35" x="0.0" y="150.0" max_dur="00:00:00" >
			</activity>
			<leg mode="drt" dep_time="08:44:47" trav_time="02:23:43">
				<attributes>
					<attribute name="routingMode" class="java.lang.String">drt</attribute>
				</attributes>
				<route type="drt" start_link="35" end_link="78" trav_time="02:23:42" distance="5000.0">300.0 5001.317362979949</route>
			</leg>
			<activity type="drt interaction" link="78" x="100.0" y="350.0" max_dur="00:00:00" >
			</activity>
			<leg mode="walk" dep_time="11:08:31" trav_time="00:00:00">
				<attributes>
					<attribute name="routingMode" class="java.lang.String">drt</attribute>
				</attributes>
				<route type="generic" start_link="78" end_link="78" trav_time="00:00:00" distance="0.0"></route>
			</leg>
			<activity type="work_600.0" link="78" end_time="12:56:57" >
			</activity>
			<leg mode="walk" dep_time="12:56:57" trav_time="00:00:00">
				<attributes>
					<attribute name="routingMode" class="java.lang.String">drt</attribute>
				</attributes>
				<route type="generic" start_link="78" end_link="78" trav_time="00:00:00" distance="0.0"></route>
			</leg>
			<activity type="drt interaction" link="78" x="100.0" y="350.0" max_dur="00:00:00" >
			</activity>
			<leg mode="drt" dep_time="12:56:58" trav_time="01:27:02">
				<attributes>
					<attribute name="routingMode" class="java.lang.String">drt</attribute>
				</attributes>
				<route type="drt" start_link="78" end_link="35" trav_time="01:27:01" distance="3000.0">300.0 3001.1466329270334</route>
			</leg>
			<activity type="drt interaction" link="35" x="0.0" y="150.0" max_dur="00:00:00" >
			</activity>
			<leg mode="walk" dep_time="14:24:01" trav_time="00:00:00">
				<attributes>
					<attribute name="routingMode" class="java.lang.String">drt</attribute>
				</attributes>
				<route type="generic" start_link="35" end_link="35" trav_time="00:00:00" distance="0.0"></route>
			</leg>
			<activity type="home_600.0" link="35" >
			</activity>
		</plan>

	</person>

	<!-- ====================================================================== -->

	<person id="1">
		<attributes>
			<attribute name="subpopulation" class="java.lang.String">person</attribute>
		</attributes>
		<plan score="-4.052609850734563" selected="yes">
			<activity type="home_600.0" link="55" end_time="09:21:26" >
			</activity>
			<leg mode="walk" dep_time="09:21:26" trav_time="00:00:00">
				<attributes>
					<attribute name="routingMode" class="java.lang.String">drt</attribute>
				</attributes>
				<route type="generic" start_link="55" end_link="55" trav_time="00:00:00" distance="0.0"></route>
			</leg>
			<activity type="drt interaction" link="55" x="0.0" y="250.0" max_dur="00:00:00" >
			</activity>
			<leg mode="drt" dep_time="09:21:27" trav_time="02:52:05">
				<attributes>
					<attribute name="routingMode" class="java.lang.String">drt</attribute>
				</attributes>
				<route type="drt" start_link="55" end_link="70" trav_time="02:52:02" distance="6000.0">300.0 6001.573407923446</route>
			</leg>
			<activity type="drt interaction" link="70" x="350.0" y="300.0" max_dur="00:00:00" >
			</activity>
			<leg mode="walk" dep_time="12:13:33" trav_time="00:00:00">
				<attributes>
					<attribute name="routingMode" class="java.lang.String">drt</attribute>
				</attributes>
				<route type="generic" start_link="70" end_link="70" trav_time="00:00:00" distance="0.0"></route>
			</leg>
			<activity type="work_600.0" link="70" end_time="12:47:15" >
			</activity>
			<leg mode="walk" dep_time="12:47:15" trav_time="00:00:00">
				<attributes>
					<attribute name="routingMode" class="java.lang.String">drt</attribute>
				</attributes>
				<route type="generic" start_link="70" end_link="70" trav_time="00:00:00" distance="0.0"></route>
			</leg>
			<activity type="drt interaction" link="70" x="350.0" y="300.0" max_dur="00:00:00" >
			</activity>
			<leg mode="drt" dep_time="12:47:16" trav_time="01:55:24">
				<attributes>
					<attribute name="routingMode" class="java.lang.String">drt</attribute>
				</attributes>
				<route type="drt" start_link="70" end_link="55" trav_time="01:55:22" distance="4000.0">300.0 4001.5422743962117</route>
			</leg>
			<activity type="drt interaction" link="55" x="0.0" y="250.0" max_dur="00:00:00" >
			</activity>
			<leg mode="walk" dep_time="14:42:41" trav_time="00:00:00">
				<attributes>
					<attribute name="routingMode" class="java.lang.String">drt</attribute>
				</attributes>
				<route type="generic" start_link="55" end_link="55" trav_time="00:00:00" distance="0.0"></route>
			</leg>
			<activity type="home_600.0" link="55" >
			</activity>
		</plan>

		<plan score="-431.97209205545784" selected="no">
			<activity type="home_600.0" link="55" end_time="09:21:26" >
			</activity>
			<leg mode="walk" dep_time="09:21:26" trav_time="00:00:00">
				<attributes>
					<attribute name="routingMode" class="java.lang.String">drt</attribute>
				</attributes>
				<route type="generic" start_link="55" end_link="55" trav_time="00:00:00" distance="0.0"></route>
			</leg>
			<activity type="drt interaction" link="55" x="0.0" y="250.0" max_dur="00:00:00" >
			</activity>
			<leg mode="drt" dep_time="09:21:27" trav_time="02:52:05">
				<attributes>
					<attribute name="routingMode" class="java.lang.String">drt</attribute>
				</attributes>
				<route type="drt" start_link="55" end_link="70" trav_time="02:52:02" distance="6000.0">300.0 6001.703994503972</route>
			</leg>
			<activity type="drt interaction" link="70" x="350.0" y="300.0" max_dur="00:00:00" >
			</activity>
			<leg mode="walk" dep_time="12:13:33" trav_time="00:00:00">
				<attributes>
					<attribute name="routingMode" class="java.lang.String">drt</attribute>
				</attributes>
				<route type="generic" start_link="70" end_link="70" trav_time="00:00:00" distance="0.0"></route>
			</leg>
			<activity type="work_600.0" link="70" end_time="12:47:15" >
			</activity>
			<leg mode="walk" dep_time="12:47:15" trav_time="00:00:00">
				<attributes>
					<attribute name="routingMode" class="java.lang.String">drt</attribute>
				</attributes>
				<route type="generic" start_link="70" end_link="70" trav_time="00:00:00" distance="0.0"></route>
			</leg>
			<activity type="drt interaction" link="70" x="350.0" y="300.0" max_dur="00:00:00" >
			</activity>
			<leg mode="drt" dep_time="12:47:16" trav_time="01:55:24">
				<attributes>
					<attribute name="routingMode" class="java.lang.String">drt</attribute>
				</attributes>
				<route type="drt" start_link="70" end_link="55" trav_time="01:55:22" distance="4000.0">300.0 4001.6657706999904</route>
			</leg>
			<activity type="drt interaction" link="55" x="0.0" y="250.0" max_dur="00:00:00" >
			</activity>
			<leg mode="walk" dep_time="14:42:41" trav_time="00:00:00">
				<attributes>
					<attribute name="routingMode" class="java.lang.String">drt</attribute>
				</attributes>
				<route type="generic" start_link="55" end_link="55" trav_time="00:00:00" distance="0.0"></route>
			</leg>
			<activity type="home_600.0" link="55" >
			</activity>
		</plan>

		<plan score="-431.97209205545784" selected="no">
			<activity type="home_600.0" link="55" end_time="09:21:26" >
			</activity>
			<leg mode="walk" dep_time="09:21:26" trav_time="00:00:00">
				<attributes>
					<attribute name="routingMode" class="java.lang.String">drt</attribute>
				</attributes>
				<route type="generic" start_link="55" end_link="55" trav_time="00:00:00" distance="0.0"></route>
			</leg>
			<activity type="drt interaction" link="55" x="0.0" y="250.0" max_dur="00:00:00" >
			</activity>
			<leg mode="drt" dep_time="09:21:27" trav_time="02:52:05">
				<attributes>
					<attribute name="routingMode" class="java.lang.String">drt</attribute>
				</attributes>
				<route type="drt" start_link="55" end_link="70" trav_time="02:52:03" distance="6000.0">300.0 6002.320823865353</route>
			</leg>
			<activity type="drt interaction" link="70" x="350.0" y="300.0" max_dur="00:00:00" >
			</activity>
			<leg mode="walk" dep_time="12:13:33" trav_time="00:00:00">
				<attributes>
					<attribute name="routingMode" class="java.lang.String">drt</attribute>
				</attributes>
				<route type="generic" start_link="70" end_link="70" trav_time="00:00:00" distance="0.0"></route>
			</leg>
			<activity type="work_600.0" link="70" end_time="12:47:15" >
			</activity>
			<leg mode="walk" dep_time="12:47:15" trav_time="00:00:00">
				<attributes>
					<attribute name="routingMode" class="java.lang.String">drt</attribute>
				</attributes>
				<route type="generic" start_link="70" end_link="70" trav_time="00:00:00" distance="0.0"></route>
			</leg>
			<activity type="drt interaction" link="70" x="350.0" y="300.0" max_dur="00:00:00" >
			</activity>
			<leg mode="drt" dep_time="12:47:16" trav_time="01:55:23">
				<attributes>
					<attribute name="routingMode" class="java.lang.String">drt</attribute>
				</attributes>
				<route type="drt" start_link="70" end_link="55" trav_time="01:55:23" distance="4000.0">300.0 4002.167698258905</route>
			</leg>
			<activity type="drt interaction" link="55" x="0.0" y="250.0" max_dur="00:00:00" >
			</activity>
			<leg mode="walk" dep_time="14:42:40" trav_time="00:00:00">
				<attributes>
					<attribute name="routingMode" class="java.lang.String">drt</attribute>
				</attributes>
				<route type="generic" start_link="55" end_link="55" trav_time="00:00:00" distance="0.0"></route>
			</leg>
			<activity type="home_600.0" link="55" >
			</activity>
		</plan>

		<plan score="-431.97209205545784" selected="no">
			<activity type="home_600.0" link="55" end_time="09:21:26" >
			</activity>
			<leg mode="walk" dep_time="09:21:26" trav_time="00:00:00">
				<attributes>
					<attribute name="routingMode" class="java.lang.String">drt</attribute>
				</attributes>
				<route type="generic" start_link="55" end_link="55" trav_time="00:00:00" distance="0.0"></route>
			</leg>
			<activity type="drt interaction" link="55" x="0.0" y="250.0" max_dur="00:00:00" >
			</activity>
			<leg mode="drt" dep_time="09:21:27" trav_time="02:52:04">
				<attributes>
					<attribute name="routingMode" class="java.lang.String">drt</attribute>
				</attributes>
				<route type="drt" start_link="55" end_link="70" trav_time="02:52:02" distance="6000.0">300.0 6001.668794778765</route>
			</leg>
			<activity type="drt interaction" link="70" x="350.0" y="300.0" max_dur="00:00:00" >
			</activity>
			<leg mode="walk" dep_time="12:13:32" trav_time="00:00:00">
				<attributes>
					<attribute name="routingMode" class="java.lang.String">drt</attribute>
				</attributes>
				<route type="generic" start_link="70" end_link="70" trav_time="00:00:00" distance="0.0"></route>
			</leg>
			<activity type="work_600.0" link="70" end_time="12:47:15" >
			</activity>
			<leg mode="walk" dep_time="12:47:15" trav_time="00:00:00">
				<attributes>
					<attribute name="routingMode" class="java.lang.String">drt</attribute>
				</attributes>
				<route type="generic" start_link="70" end_link="70" trav_time="00:00:00" distance="0.0"></route>
			</leg>
			<activity type="drt interaction" link="70" x="350.0" y="300.0" max_dur="00:00:00" >
			</activity>
			<leg mode="drt" dep_time="12:47:16" trav_time="01:55:23">
				<attributes>
					<attribute name="routingMode" class="java.lang.String">drt</attribute>
				</attributes>
				<route type="drt" start_link="70" end_link="55" trav_time="01:55:22" distance="4000.0">300.0 4001.632482164998</route>
			</leg>
			<activity type="drt interaction" link="55" x="0.0" y="250.0" max_dur="00:00:00" >
			</activity>
			<leg mode="walk" dep_time="14:42:40" trav_time="00:00:00">
				<attributes>
					<attribute name="routingMode" class="java.lang.String">drt</attribute>
				</attributes>
				<route type="generic" start_link="55" end_link="55" trav_time="00:00:00" distance="0.0"></route>
			</leg>
			<activity type="home_600.0" link="55" >
			</activity>
		</plan>

		<plan score="-431.97209205545784" selected="no">
			<activity type="home_600.0" link="55" end_time="09:21:26" >
			</activity>
			<leg mode="walk" dep_time="09:21:26" trav_time="00:00:00">
				<attributes>
					<attribute name="routingMode" class="java.lang.String">drt</attribute>
				</attributes>
				<route type="generic" start_link="55" end_link="55" trav_time="00:00:00" distance="0.0"></route>
			</leg>
			<activity type="drt interaction" link="55" x="0.0" y="250.0" max_dur="00:00:00" >
			</activity>
			<leg mode="drt" dep_time="09:21:27" trav_time="02:52:06">
				<attributes>
					<attribute name="routingMode" class="java.lang.String">drt</attribute>
				</attributes>
				<route type="drt" start_link="55" end_link="70" trav_time="02:52:03" distance="6000.0">300.0 6002.132441361558</route>
			</leg>
			<activity type="drt interaction" link="70" x="350.0" y="300.0" max_dur="00:00:00" >
			</activity>
			<leg mode="walk" dep_time="12:13:34" trav_time="00:00:00">
				<attributes>
					<attribute name="routingMode" class="java.lang.String">drt</attribute>
				</attributes>
				<route type="generic" start_link="70" end_link="70" trav_time="00:00:00" distance="0.0"></route>
			</leg>
			<activity type="work_600.0" link="70" end_time="12:47:15" >
			</activity>
			<leg mode="walk" dep_time="12:47:15" trav_time="00:00:00">
				<attributes>
					<attribute name="routingMode" class="java.lang.String">drt</attribute>
				</attributes>
				<route type="generic" start_link="70" end_link="70" trav_time="00:00:00" distance="0.0"></route>
			</leg>
			<activity type="drt interaction" link="70" x="350.0" y="300.0" max_dur="00:00:00" >
			</activity>
			<leg mode="drt" dep_time="12:47:16" trav_time="01:55:23">
				<attributes>
					<attribute name="routingMode" class="java.lang.String">drt</attribute>
				</attributes>
				<route type="drt" start_link="70" end_link="55" trav_time="01:55:23" distance="4000.0">300.0 4002.0011552947253</route>
			</leg>
			<activity type="drt interaction" link="55" x="0.0" y="250.0" max_dur="00:00:00" >
			</activity>
			<leg mode="walk" dep_time="14:42:40" trav_time="00:00:00">
				<attributes>
					<attribute name="routingMode" class="java.lang.String">drt</attribute>
				</attributes>
				<route type="generic" start_link="55" end_link="55" trav_time="00:00:00" distance="0.0"></route>
			</leg>
			<activity type="home_600.0" link="55" >
			</activity>
		</plan>

	</person>

	<!-- ====================================================================== -->

	<person id="10">
		<attributes>
			<attribute name="subpopulation" class="java.lang.String">person</attribute>
		</attributes>
		<plan score="-431.59994927948185" selected="no">
			<activity type="home_600.0" link="69" end_time="13:34:33" >
			</activity>
			<leg mode="walk" dep_time="13:34:33" trav_time="00:00:00">
				<attributes>
					<attribute name="routingMode" class="java.lang.String">drt</attribute>
				</attributes>
				<route type="generic" start_link="69" end_link="69" trav_time="00:00:00" distance="0.0"></route>
			</leg>
			<activity type="drt interaction" link="69" x="350.0" y="300.0" max_dur="00:00:00" >
			</activity>
			<leg mode="drt" dep_time="13:34:34" trav_time="00:30:21">
				<attributes>
					<attribute name="routingMode" class="java.lang.String">drt</attribute>
				</attributes>
				<route type="drt" start_link="69" end_link="71" trav_time="00:30:21" distance="1000.0">300.0 1001.0</route>
			</leg>
			<activity type="drt interaction" link="71" x="400.0" y="250.0" max_dur="00:00:00" >
			</activity>
			<leg mode="walk" dep_time="14:04:56" trav_time="00:00:00">
				<attributes>
					<attribute name="routingMode" class="java.lang.String">drt</attribute>
				</attributes>
				<route type="generic" start_link="71" end_link="71" trav_time="00:00:00" distance="0.0"></route>
			</leg>
			<activity type="work_600.0" link="71" end_time="13:53:27" >
			</activity>
			<leg mode="walk" dep_time="13:53:27" trav_time="00:00:00">
				<attributes>
					<attribute name="routingMode" class="java.lang.String">drt</attribute>
				</attributes>
				<route type="generic" start_link="71" end_link="71" trav_time="00:00:00" distance="0.0"></route>
			</leg>
			<activity type="drt interaction" link="71" x="400.0" y="250.0" max_dur="00:00:00" >
			</activity>
			<leg mode="drt" dep_time="13:53:28" trav_time="01:27:02">
				<attributes>
					<attribute name="routingMode" class="java.lang.String">drt</attribute>
				</attributes>
				<route type="drt" start_link="71" end_link="69" trav_time="01:27:05" distance="3000.0">300.0 3003.375400120385</route>
			</leg>
			<activity type="drt interaction" link="69" x="350.0" y="300.0" max_dur="00:00:00" >
			</activity>
			<leg mode="walk" dep_time="15:20:31" trav_time="00:00:00">
				<attributes>
					<attribute name="routingMode" class="java.lang.String">drt</attribute>
				</attributes>
				<route type="generic" start_link="69" end_link="69" trav_time="00:00:00" distance="0.0"></route>
			</leg>
			<activity type="home_600.0" link="69" >
			</activity>
		</plan>

		<plan score="-431.59994927948185" selected="no">
			<activity type="home_600.0" link="69" end_time="13:34:33" >
			</activity>
			<leg mode="walk" dep_time="13:34:33" trav_time="00:00:00">
				<attributes>
					<attribute name="routingMode" class="java.lang.String">drt</attribute>
				</attributes>
				<route type="generic" start_link="69" end_link="69" trav_time="00:00:00" distance="0.0"></route>
			</leg>
			<activity type="drt interaction" link="69" x="350.0" y="300.0" max_dur="00:00:00" >
			</activity>
			<leg mode="drt" dep_time="13:34:34" trav_time="00:30:21">
				<attributes>
					<attribute name="routingMode" class="java.lang.String">drt</attribute>
				</attributes>
				<route type="drt" start_link="69" end_link="71" trav_time="00:30:21" distance="1000.0">300.0 1001.0</route>
			</leg>
			<activity type="drt interaction" link="71" x="400.0" y="250.0" max_dur="00:00:00" >
			</activity>
			<leg mode="walk" dep_time="14:04:56" trav_time="00:00:00">
				<attributes>
					<attribute name="routingMode" class="java.lang.String">drt</attribute>
				</attributes>
				<route type="generic" start_link="71" end_link="71" trav_time="00:00:00" distance="0.0"></route>
			</leg>
			<activity type="work_600.0" link="71" end_time="13:53:27" >
			</activity>
			<leg mode="walk" dep_time="13:53:27" trav_time="00:00:00">
				<attributes>
					<attribute name="routingMode" class="java.lang.String">drt</attribute>
				</attributes>
				<route type="generic" start_link="71" end_link="71" trav_time="00:00:00" distance="0.0"></route>
			</leg>
			<activity type="drt interaction" link="71" x="400.0" y="250.0" max_dur="00:00:00" >
			</activity>
			<leg mode="drt" dep_time="13:53:28" trav_time="01:27:02">
				<attributes>
					<attribute name="routingMode" class="java.lang.String">drt</attribute>
				</attributes>
				<route type="drt" start_link="71" end_link="69" trav_time="01:27:05" distance="3000.0">300.0 3003.5004211793494</route>
			</leg>
			<activity type="drt interaction" link="69" x="350.0" y="300.0" max_dur="00:00:00" >
			</activity>
			<leg mode="walk" dep_time="15:20:31" trav_time="00:00:00">
				<attributes>
					<attribute name="routingMode" class="java.lang.String">drt</attribute>
				</attributes>
				<route type="generic" start_link="69" end_link="69" trav_time="00:00:00" distance="0.0"></route>
			</leg>
			<activity type="home_600.0" link="69" >