<?xml version="1.0" encoding="UTF-8"?>
<!DOCTYPE network SYSTEM "http://www.matsim.org/files/dtd/network_v2.dtd">
<network>

<!-- ====================================================================== -->

	<nodes>
		<node id="node_1" x="0.0" y="0.0" >
		</node>
		<node id="node_2" x="1000.0" y="0.0" >
		</node>
	</nodes>

<!-- ====================================================================== -->

	<links capperiod="01:00:00" effectivecellsize="7.5" effectivelanewidth="3.75">
		<link id="link_1-2" from="node_1" to="node_2" length="1000.0" freespeed="1.0" capacity="1800.0" permlanes="1.0" oneway="1" modes="car" >
		</link>
		<link id="link_2-1" from="node_2" to="node_1" length="1000.0" freespeed="1.0" capacity="1800.0" permlanes="1.0" oneway="1" modes="car" >
		</link>
	</links>

<!-- ====================================================================== -->

</network>
